$$ HM_OUTPUT_DECK created 19:28:15 10-10-2017 by HyperMesh Version 14.0.0.88
$$ Ls-dyna Input Deck Generated by HyperMesh Version  : 14.0.0.88
$$ Generated using HyperMesh-Ls-dyna 971_R7.0 Template Version : 14.0
*KEYWORD
*CONTROL_TERMINATION
$$  ENDTIM    ENDCYC     DTMIN    ENDENG    ENDMAS     NOSOL
      30.0                                                  
*CONTROL_HOURGLASS
$$     IHQ        QH
         4       0.1
*CONTROL_IMPLICIT_AUTO
$$   IAUTO    ITEOPT    ITEWIN     DTMIN     DTMAX     DTEXP     KFAIL    KCYCLE
         1                           0.1       0.5                              
*CONTROL_IMPLICIT_GENERAL
$$  IMFLAG       DT0    IMFLAG      NSBS       IGS     CNSTN      FORM    ZERO_V
         1                                                                      
*CONTROL_IMPLICIT_SOLVER
$$  LSOLVR    LPRINT     NEGEV     ORDER      DRCM    DRCPRM   AUTOSPC   AUTOTOL
         4                                                                      

*CONTROL_IMPLICIT_SOLUTION
$$  NSOLVR    ILIMIT    MAXREF     DCTOL     ECTOL     RCTOL     LSTOL    ABSTOL
         2                                                                      
*CONTROL_ENERGY
$$    HGEN      RWEN    SLNTEN     RYLEN
         2         2         2         2
$$DATABASE_OPTION -- Control Cards for ASCII output
*DATABASE_ELOUT
$$      DT    BINARY      LCUR      IOPT
       0.3         0                    
*DATABASE_GLSTAT
$$      DT    BINARY      LCUR      IOPT
       3.0         0                    
*DATABASE_MATSUM
$$      DT    BINARY      LCUR      IOPT
       0.3         0                    
*DATABASE_RCFORC
$$      DT    BINARY      LCUR      IOPT
      0.15         0                    
*DATABASE_RWFORC
$$      DT    BINARY      LCUR      IOPT
      0.15         0                    
*DATABASE_SSSTAT
$$      DT    BINARY      LCUR      IOPT
       0.3         0                    
*DATABASE_BINARY_D3PLOT
$$ DT/CYCL      LCDT      BEAM     NPLTC    PSETID
       0.3                                        
          
*DATABASE_EXTENT_BINARY
$$   NEIPH     NEIPS    MAXINT    STRFLG    SIGFLG    EPSFLG    RLTFLG    ENGFLG
                                       1                                        
$$  CMPFLG    IEVERP    BEAMIP     DCOMP      SHGE     STSSZ    N3THDT   IALEMAT
                                                                                
$$ NINTSLD   PKP_SEN      SCLP     HYDRO     MSSCL     THERM    INTOUT    NODOUT
                                                                                
$$    DTDT    RESPLT     NEIPB
                              
*NODE
       1 1976.0186670151  -107.184187107 623.91119814119                
       2 1972.3478460579 -105.1618874014 632.65755406555                
       3 1973.4651282231 -105.1537902224 630.68598923058                
       4 1968.8540087918 -109.4085007347 630.91258404828                
       5 1970.0969189643 -109.3865949603 628.72960153476                
       6 1970.5660517376 -107.2245742648 631.77159043921                
       7  1971.748639648 -107.2089460293 629.69175991736                
       8 1974.7000769304 -105.1478511502 628.78218528652                
       9 1973.0563040979 -107.1958601159 627.68285059471                
      10 1971.4716781276 -109.3693238807 626.61817528058                
      11 1973.2253261781 -111.6233708383 621.45907499252                
      12 1971.5319406041 -111.6289777988 623.48985383117                
      13 1969.9686193981 -111.6436981982 625.60488808521                
      14 1968.5286347147 -111.6661855313 627.81522557414                
      15 1967.2300697792 -111.6946692413 630.09395192517                
      16 1960.3406471971 -121.9314173935 629.96018024685                
      17 1961.6031174667 -119.2513066776 630.51971606979                
      18 1962.9923418652 -116.6348369328 631.12748762902                
      19 1964.4747143184 -114.1386416218 631.76882395256                
      20 1966.0664561175 -111.7273342614 632.45209302507                
$ ... 13553 like lines cut
*MAT_RIGID
$HMNAME MATERIALS         1rgd_bott                                                                        
         17.8500E-09  200000.0      0.33                                        
       1.0         7         7
         0
*MAT_RIGID
$HMNAME MATERIALS         2rgd_top                                                                         
         27.8500E-09  200000.0      0.33                                        
       1.0         6         7
         0
*MAT_PIECEWISE_LINEAR_PLASTICITY
$HMNAME MATERIALS         3PET                                                                             
         31.2200E-09    2920.0       0.4      33.9     146.0                    
                                                  
$$ HM Entries in Stress-Strain Curve =          


*PART
$HWCOLOR COMPS       1       7
bot_rgd                                                                         
         1         1         1                                                  
$HWCOLOR COMPS       2      52
top_rgd                                                                         
         2         1         2                                                  
$HWCOLOR COMPS       3      49
bottles                                                                         
         3         1         3                                                  
$HWCOLOR COMPS       4      38
neck                                                                            
         4         3         3                                                  
*SECTION_SHELL
$HMNAME PROPERTIES         1shell                                                                           
         1        16       1.0         2                             0          
       1.0       1.0       1.0       1.0                                        
*SECTION_SHELL
$HMNAME PROPERTIES         3thk                                                                             
         3        16       1.0         2                                        
       3.1       3.1       3.1       3.1                                        
*SECTION_SOLID
$HMNAME PROPERTIES         2sld                                                                             
         2         2          
$$ Base Accelerations and Angular Velocities
*LOAD_BODY_Y
$HMNAME LOADCOLS       1grav                                                                    
$HWCOLOR LOADCOLS       1      11
         3      -1.0                                                  
*LOAD_BODY_PARTS
$HMNAME LOADCOLS       1grav                                                                    
$HWCOLOR LOADCOLS       1      11
         1
*SET_SEGMENT
$HMNAME CSURFS       1top_rgd                                                                 
$HWCOLOR CSURFS       1       4
         1                                        MECH      
      5032      5030      5029      5033
      5033      5029      5027      5026
      4949      5032      5033      4950
      4950      5033      5026      4951
      4997      4996      5031      5034
      5034      5031      5030      5032
      4947      4997      5034      4948
      4948      5034      5032      4949
      5041      5039      5038      5042
      5042      5038      4961      4960
      4953      5041      5042      4954
      4954      5042      4960      4955
      5039      5041      5043      5040
      5041      4953      4952      5043
      5040      5043      5026      5027
      5043      4952      4951      5026
      5067      5066      5070      5069
      5066      4945      4944      5070
      5069      5070      5053      5052
      5070      4944      4943      5053
$ ... 1620 like lines cut
*SET_SEGMENT
$HMNAME CSURFS       2bott_rgd                                                                
$HWCOLOR CSURFS       2      36
         2                                        MECH      
       182       183       179       180
       183       177       178       179
       162       163       183       182
       163       164       177       183
       176       184       181       175
       184       182       180       181
       160       161       184       176
       161       162       182       184
       188       189       185       186
       189       173       174       185
       166       167       189       188
       167       168       173       189
       186       187       190       188
       188       190       165       166
       187       178       177       190
       190       177       164       165
       194       195       196       193
       193       196       157       158
       195       191       192       196
       196       192       156       157
$ ... 1620 like lines cut
*SET_SEGMENT
$HMNAME CSURFS       3bot_bott                                                                
$HWCOLOR CSURFS       3       5
         3                                        MECH      
     11293     11291     11303     11302
     11291     11308     11307     11303
     11292     11290     11291     11293
     11290     11309     11308     11291
     11328     11327     11290     11292
     11327     11326     11309     11290
     11295     11289     11301     11300
     11289     11293     11302     11301
     11331     11330     11288     11294
     11294     11288     11289     11295
     11292     11287     11329     11328
     11287     11288     11330     11329
     11289     11287     11292     11293
     11288     11287     11289     11289
     11286     11284     11299     11298
     11284     11295     11300     11299
     11285     11283     11284     11286
     11283     11294     11295     11284
     11333     11332     11283     11285
     11332     11331     11294     11283
$ ... 952 like lines cut
*CONTACT_AUTOMATIC_SURFACE_TO_SURFACE_ID
$HWCOLOR GROUPS       1      11
         1top_rgd                                                               
         4         2         3         3                                        
       0.2       0.2                                                            
                                                                                
         1                                                                      
                                       1                                        
                   1                                                            
*CONTACT_AUTOMATIC_SURFACE_TO_SURFACE_ID
$HWCOLOR GROUPS       2      11
         2bott_rgd                                                              
         3         1         3         3                                        
       0.2       0.2                                                            
                                                                                
         1                                                                      
                                       1                                        
                   1                                                            
*CONTACT_AUTOMATIC_NODES_TO_SURFACE_ID
$HWCOLOR GROUPS       3      11
         3top_node_surf                                                         
         2         1         4         0                                        
       0.2       0.2                                                            
                                                                                
         1                                                                      
                                       1                                        
         1                                                                      
*ELEMENT_SHELL_THICKNESS
    3288       3   11405   11404   11403   11403
           1.001           0.997           1.001           1.001
    3373       3   11288   11287   11289   11289
           1.001           0.995           0.992           0.992
    3402       3   11271   11269   11274   11274
             1.0             1.0           0.995           0.995
    3420       3   11259   11260   11266   11266
           0.995             1.0           0.995           0.995
    3434       3   11243   11242   11244   11244
           0.997            0.99           0.992           0.992
    3451       3   11230   11229   11225   11225
           0.996           0.996           0.994           0.994
    3528       3   11126   11125   11124   11124
           1.051           1.051           0.995           0.995
    3551       3   11112   11111   11110   11110
           1.049           1.057           0.991           0.991
    3566       3   11104   11102   11198   11198
           0.992            0.99           0.992           0.992
    3578       3   11092   11091   11090   11090
           1.052           1.058           0.993           0.993
$ ... 140 like lines cut
*ELEMENT_SHELL
       1       1     182     183     179     180
       2       1     183     177     178     179
       3       1     162     163     183     182
       4       1     163     164     177     183
       5       1     176     184     181     175
       6       1     184     182     180     181
       7       1     160     161     184     176
       8       1     161     162     182     184
       9       1     188     189     185     186
      10       1     189     173     174     185
      11       1     166     167     189     188
      12       1     167     168     173     189
      13       1     186     187     190     188
      14       1     188     190     165     166
      15       1     187     178     177     190
      16       1     190     177     164     165
      17       1     194     195     196     193
      18       1     193     196     157     158
      19       1     195     191     192     196
      20       1     196     192     156     157
$ ... 3260 like lines cut
*ELEMENT_SHELL_THICKNESS
    3281       3   11405   11430   11429   11402
           1.001           0.982           0.982           0.996
    3282       3   11402   11429   11428   11401
           0.996           0.982           0.967           0.996
    3283       3   11401   11428   11427   11400
           0.996           0.967           1.004           1.004
    3284       3   11400   11427   11426   11399
           1.004           1.004           0.991           0.996
    3285       3   11399   11426   11425   11398
           0.996           0.991           1.006           0.996
    3286       3   11398   11425   11424   11397
           0.996           1.006           0.998           0.996
    3287       3   11397   11424   11423   11422
           0.996           0.998           0.998           0.986
    3289       3   11404   11405   11402   11396
           0.997           1.001           0.996           0.995
    3290       3   11396   11402   11401   11395
           0.995           0.996           0.996           0.996
    3291       3   11395   11401   11400   11394
           0.996           0.996           1.004           0.982
$ ... 17492 like lines cut
*ELEMENT_SHELL
   12117       4   12455   12454   12458   12457
   12118       4   12454   12452   12451   12458
   12119       4   12457   12458   12445   12444
   12120       4   12458   12451   12446   12445
   12121       4   12437   12456   12459   12438
   12122       4   12456   12455   12457   12459
   12123       4   12438   12459   12443   12439
   12124       4   12459   12457   12444   12443
   12125       4   12425   12424   12461   12460
   12126       4   12424   12423   12453   12461
   12127       4   12460   12461   12454   12455
   12128       4   12461   12453   12452   12454
   12129       4   12427   12426   12462   12436
   12130       4   12426   12425   12460   12462
   12131       4   12436   12462   12456   12437
   12132       4   12462   12460   12455   12456
   12133       4   12464   12463   12468   12467
   12134       4   12463   12302   12301   12468
   12135       4   12467   12468   12450   12449
   12136       4   12468   12301   12300   12450
$ ... 1276 like lines cut
$$
$$ Sets Defined In HyperMesh
$$
*SET_PART_LIST
$HMSET
$HMNAME SETS       1grav                                                                    
         1                                        MECH      
         3
*SET_NODE_LIST
$HMSET
$HMNAME SETS       2top_nodes                                                               
         2                                        MECH      
     12367     12366     12365     12364     12363     12362     12361     12360
     12359     12358     12357     12356     12355     12354     12353     12352
     12351     12350     12349     12348     12347     12346     12345     12344
     12343     12342     12341     12340     12339     12338     12337     12336
     12335     12334     12333     12332     12331     12330     12329     12328
     12327     12326     12325     12324     12323     12322     12321     12320
     12319     12318     12317     12316     12315     12314     12313     12312
     12311     12310     12309     12308     12307     12306     12305     12304
     12303     12302     12301     12300     12299     12298     12297     12296
*BOUNDARY_PRESCRIBED_MOTION_RIGID
$HMNAME LOADCOLS       2disp                                                                    
$HWCOLOR LOADCOLS       2       4
         2         2         2         2       1.0                              
*DEFINE_CURVE
$HMNAME CURVES         1laminate                                                                
$HWCOLOR CURVES         1      11
$HMCURVE     1    2 laminate                                                                        
         1                 1.0       1.0                    
                 0.0                 0.0
              0.0161               5.783
               0.033              11.761
              0.0491               14.85
              0.0649              16.803
              0.0803              18.074
              0.0956              18.964
              0.1106              19.589
              0.1254              20.052
                0.14               20.36
              0.1544              20.666
              0.1686              20.972
              0.1708              21.033
*DEFINE_CURVE
$HMNAME CURVES         2disp                                                                    
$HWCOLOR CURVES         2      11
$HMCURVE     1    3 disp                                                                            
         2                 1.0       1.0                    
                 0.0                 0.0
                30.0               -30.0
*DEFINE_CURVE
$HMNAME CURVES         3grav                                                                    
$HWCOLOR CURVES         3      11
$HMCURVE     1    1 grav                                                                            
         3                 1.0       1.0                    
                 0.0              9810.0
                 1.0              9810.0
*END
